 # File generated with Atomsk by karimzongo on 2024-11-20 13:37:50
 CRYSTAL
 PRIMVEC
     10.06908615        0.00000000        0.00000000
     -5.03453805        8.72007966        0.00000000
      0.00000000        0.00000000       11.04379991
 CONVVEC
     10.06908615        0.00000000        0.00000000
     -5.03453805        8.72007966        0.00000000
      0.00000000        0.00000000       11.04379991
 PRIMCOORD
       72 1
14        1.31309254        2.27434299        0.00000000
14       -1.20417894        2.08569910        3.68126844
14        2.40835787        0.00000000        1.84063422
8        0.22446018        1.81063220        4.40465246
8        0.83698798        3.64911407        0.72338395
8       -1.06144808        3.26033790        2.56401825
8        1.45582339        1.09970432        1.11725019
8        3.35425949        0.71092795        2.95788441
8        2.74173150        2.54940989        4.79851846
14        6.34763561        2.27434299        0.00000000
14        3.83036414        2.08569910        3.68126844
14        7.44290095        0.00000000        1.84063422
8        5.25900325        1.81063220        4.40465246
8        5.87153105        3.64911407        0.72338395
8        3.97309500        3.26033790        2.56401825
8        6.49036647        1.09970432        1.11725019
8        8.38880256        0.71092795        2.95788441
8        7.77627457        2.54940989        4.79851846
14       -1.20417649        6.63438282        0.00000000
14       -3.72144796        6.44573893        3.68126844
14       -0.10891115        4.36003983        1.84063422
8       -2.29280885        6.17067203        4.40465246
8       -1.68028105        8.00915390        0.72338395
8       -3.57871710        7.62037773        2.56401825
8       -1.06144564        5.45974415        1.11725019
8        0.83699046        5.07096778        2.95788441
8        0.22446247        6.90944972        4.79851846
14        3.83036658        6.63438282        0.00000000
14        1.31309511        6.44573893        3.68126844
14        4.92563192        4.36003983        1.84063422
8        2.74173423        6.17067203        4.40465246
8        3.35426202        8.00915390        0.72338395
8        1.45582597        7.62037773        2.56401825
8        3.97309744        5.45974415        1.11725019
8        5.87153353        5.07096778        2.95788441
8        5.25900555        6.90944972        4.79851846
14        1.31309254        2.27434299        5.52189995
14       -1.20417894        2.08569910        9.20316839
14        2.40835787        0.00000000        7.36253417
8        0.22446018        1.81063220        9.92655242
8        0.83698798        3.64911407        6.24528390
8       -1.06144808        3.26033790        8.08591820
8        1.45582339        1.09970432        6.63915015
8        3.35425949        0.71092795        8.47978437
8        2.74173150        2.54940989       10.32041842
14        6.34763561        2.27434299        5.52189995
14        3.83036414        2.08569910        9.20316839
14        7.44290095        0.00000000        7.36253417
8        5.25900325        1.81063220        9.92655242
8        5.87153105        3.64911407        6.24528390
5        3.97309500        3.26033790        8.08591820
8        6.49036647        1.09970432        6.63915015
8        8.38880256        0.71092795        8.47978437
8        7.77627457        2.54940989       10.32041842
14       -1.20417649        6.63438282        5.52189995
14       -3.72144796        6.44573893        9.20316839
14       -0.10891115        4.36003983        7.36253417
8       -2.29280885        6.17067203        9.92655242
8       -1.68028105        8.00915390        6.24528390
8       -3.57871710        7.62037773        8.08591820
8       -1.06144564        5.45974415        6.63915015
8        0.83699046        5.07096778        8.47978437
8        0.22446247        6.90944972       10.32041842
14        3.83036658        6.63438282        5.52189995
14        1.31309511        6.44573893        9.20316839
14        4.92563192        4.36003983        7.36253417
8        2.74173423        6.17067203        9.92655242
8        3.35426202        8.00915390        6.24528390
8        1.45582597        7.62037773        8.08591820
8        3.97309744        5.45974415        6.63915015
8        5.87153353        5.07096778        8.47978437
8        5.25900555        6.90944972       10.32041842
