data_image0
_chemical_formula_structural       FH
_chemical_formula_sum              "F1 H1"
_cell_length_a       6.0
_cell_length_b       5.0
_cell_length_c       5.0
_cell_angle_alpha    90.0
_cell_angle_beta     90.0
_cell_angle_gamma    90.0

_space_group_name_H-M_alt    "P 1"
_space_group_IT_number       1

loop_
  _space_group_symop_operation_xyz
  'x, y, z'

loop_
  _atom_site_type_symbol
  _atom_site_label
  _atom_site_symmetry_multiplicity
  _atom_site_fract_x
  _atom_site_fract_y
  _atom_site_fract_z
  _atom_site_occupancy
  F   F1        1.0  0.5833333333333333  0.5  0.5  1.0000
  H   H1        1.0  0.41666666666666663  0.5  0.5  1.0000
